My first file.

New line.

add another line